*SPEF "ieee 1481-1999"
*DESIGN "gcd"
*DATE "13:57:54 Monday April 28, 2025"
*VENDOR "The OpenROAD Project"
*PROGRAM "OpenROAD"
*VERSION "v2.0-19576-gec1bf1a13"
*DESIGN_FLOW "NAME_SCOPE LOCAL" "PIN_CAP NONE"
*DIVIDER /
*DELIMITER :
*BUS_DELIMITER []
*T_UNIT 1 NS
*C_UNIT 1 PF
*R_UNIT 1 OHM
*L_UNIT 1 HENRY

*NAME_MAP
*1 _000_
*2 _001_
*3 _002_
*4 _003_
*5 _004_
*6 _005_
*7 _006_
*8 _007_
*9 _008_
*10 _009_
*11 _010_
*12 _011_
*13 _012_
*14 _013_
*15 _014_
*16 _015_
*17 _016_
*18 _017_
*19 _018_
*20 _019_
*21 _020_
*22 _021_
*23 _022_
*24 _023_
*25 _024_
*26 _025_
*27 _026_
*28 _027_
*29 _028_
*30 _029_
*31 _030_
*32 _031_
*33 _032_
*34 _033_
*35 _034_
*36 _035_
*37 _036_
*38 _037_
*39 _038_
*40 _039_
*41 _040_
*42 _041_
*43 _042_
*44 _043_
*45 _044_
*46 _045_
*47 _046_
*48 _047_
*49 _048_
*50 _049_
*51 _050_
*52 _051_
*53 _052_
*54 _053_
*55 _054_
*56 _055_
*57 _056_
*58 _057_
*59 _058_
*60 _059_
*61 _060_
*62 _061_
*63 _062_
*64 _063_
*65 _064_
*66 _065_
*67 _066_
*68 _067_
*69 _068_
*70 _069_
*71 _070_
*72 net69
*73 _072_
*74 _073_
*75 _074_
*76 _075_
*77 _076_
*78 _077_
*79 _078_
*80 _079_
*81 _080_
*82 _081_
*83 _082_
*84 _083_
*85 _084_
*86 _085_
*87 _086_
*88 _087_
*89 _088_
*90 _089_
*91 _090_
*92 _091_
*93 _092_
*94 _093_
*95 _094_
*96 _095_
*97 _096_
*98 _097_
*99 _098_
*100 _099_
*101 _100_
*102 _101_
*103 _102_
*104 _103_
*105 _104_
*106 _105_
*107 _106_
*108 _107_
*109 _108_
*110 _109_
*111 _110_
*112 _111_
*113 _112_
*114 _113_
*115 _114_
*116 _115_
*117 _116_
*118 _117_
*119 _118_
*120 _119_
*121 _120_
*122 _121_
*123 _122_
*124 _123_
*125 _124_
*126 _125_
*127 _126_
*128 _127_
*129 _128_
*130 _129_
*131 _130_
*132 _131_
*133 _132_
*134 _133_
*135 _134_
*136 _135_
*137 _136_
*138 _137_
*139 _138_
*140 _139_
*141 _140_
*142 _141_
*143 _142_
*144 _143_
*145 _144_
*146 _145_
*147 _146_
*148 _147_
*149 _148_
*150 _149_
*151 _150_
*152 _151_
*153 _152_
*154 _153_
*155 _154_
*156 _155_
*157 _156_
*158 _157_
*159 _158_
*160 _159_
*161 _160_
*162 _161_
*163 _162_
*164 _163_
*165 _164_
*166 _165_
*167 _166_
*168 _167_
*169 _168_
*170 _169_
*171 _170_
*172 _171_
*173 _172_
*174 _173_
*175 _174_
*176 _175_
*177 _176_
*178 _177_
*179 _178_
*180 _179_
*181 _180_
*182 _181_
*183 _182_
*184 _183_
*185 _184_
*186 _185_
*187 _186_
*188 _187_
*189 _188_
*190 _189_
*191 _190_
*192 _191_
*193 _192_
*194 _193_
*195 _194_
*196 _195_
*197 _196_
*198 _197_
*199 _198_
*200 _199_
*201 _200_
*202 _201_
*203 _202_
*204 _203_
*205 _204_
*206 _205_
*207 _206_
*208 _207_
*209 _208_
*210 _209_
*211 _210_
*212 _211_
*213 _212_
*214 _213_
*215 _214_
*216 _215_
*217 _216_
*218 _217_
*219 _218_
*220 _219_
*221 _220_
*222 _221_
*223 _222_
*224 _223_
*225 _224_
*226 _225_
*227 _226_
*228 _227_
*229 _228_
*230 _229_
*231 _230_
*232 _231_
*233 _232_
*234 _233_
*235 _234_
*236 _235_
*237 _236_
*238 _237_
*239 _238_
*240 _239_
*241 _240_
*242 _241_
*243 _242_
*244 _243_
*245 _244_
*246 _245_
*247 _246_
*248 _247_
*249 _248_
*250 _249_
*251 _250_
*252 _251_
*253 _252_
*254 _253_
*255 _254_
*256 _255_
*257 _256_
*258 _257_
*259 _258_
*260 _259_
*261 _260_
*262 _261_
*263 _262_
*264 _263_
*265 _264_
*266 _265_
*267 _266_
*268 _267_
*269 _268_
*270 _269_
*271 _270_
*272 _271_
*273 _272_
*274 _273_
*275 _274_
*276 _275_
*277 _276_
*278 _277_
*279 _278_
*280 _279_
*281 _280_
*282 _281_
*283 _282_
*284 _283_
*285 _284_
*286 _285_
*287 _286_
*288 _287_
*289 _288_
*290 _289_
*291 _290_
*292 _291_
*293 _292_
*294 _293_
*295 _294_
*296 _295_
*297 _296_
*298 _297_
*299 _298_
*300 _299_
*301 _300_
*302 _301_
*303 _302_
*304 _303_
*305 _304_
*306 _305_
*307 _306_
*308 _307_
*309 _308_
*310 _309_
*311 _310_
*312 _311_
*313 _312_
*314 _313_
*315 _314_
*316 _315_
*317 _316_
*318 _317_
*319 _318_
*320 _319_
*321 _320_
*322 _321_
*323 _322_
*324 _323_
*325 _324_
*326 _325_
*327 _326_
*328 _327_
*329 _328_
*330 _329_
*331 _330_
*332 _331_
*333 _332_
*334 _333_
*335 _334_
*336 _335_
*337 _336_
*338 _337_
*339 _338_
*340 _339_
*341 _340_
*342 _341_
*343 _342_
*344 _343_
*345 _344_
*346 _345_
*347 _346_
*348 _347_
*349 _348_
*350 _349_
*351 _350_
*352 _351_
*353 _352_
*354 _353_
*355 _354_
*356 _355_
*357 _356_
*358 _357_
*359 _358_
*360 _359_
*361 _360_
*362 _361_
*363 _362_
*364 _363_
*365 _364_
*366 _365_
*367 _366_
*368 _367_
*369 _368_
*370 _369_
*371 _370_
*372 _371_
*373 _372_
*374 _373_
*375 _374_
*376 _375_
*377 _376_
*378 _377_
*379 _378_
*380 _379_
*381 _380_
*382 _381_
*383 _382_
*384 _383_
*385 _384_
*386 _385_
*387 _386_
*388 _387_
*389 _388_
*390 _389_
*391 _390_
*392 _391_
*393 _392_
*394 _393_
*395 _394_
*396 _395_
*397 _396_
*398 _397_
*399 _398_
*400 _399_
*401 _400_
*402 _401_
*403 _402_
*404 _403_
*405 _404_
*406 _405_
*407 _406_
*408 _407_
*409 _408_
*410 _409_
*411 _410_
*412 _411_
*413 _412_
*414 _413_
*415 _414_
*416 _415_
*417 _416_
*418 _417_
*419 _418_
*420 _419_
*421 _420_
*422 _421_
*423 _422_
*424 _423_
*425 _424_
*426 _425_
*427 _426_
*428 _427_
*429 _428_
*430 _429_
*431 _430_
*432 _431_
*433 _432_
*434 _433_
*435 _434_
*436 _435_
*437 _436_
*438 _437_
*439 _438_
*440 _439_
*441 _440_
*442 _441_
*443 _442_
*444 _443_
*445 _444_
*446 _445_
*447 _446_
*448 _447_
*449 _448_
*450 _449_
*451 _450_
*452 _451_
*453 _452_
*454 _453_
*455 _454_
*456 _455_
*457 _456_
*458 _457_
*459 _458_
*460 _459_
*461 _460_
*462 _461_
*463 _462_
*464 _463_
*465 _464_
*466 _465_
*467 _466_
*468 _467_
*469 _468_
*470 _469_
*471 _470_
*472 _471_
*473 _472_
*474 _473_
*475 _474_
*476 _475_
*477 _476_
*478 _477_
*479 _478_
*480 _479_
*481 _480_
*482 _481_
*483 _482_
*484 _483_
*485 _484_
*486 _485_
*487 clk
*488 ctrl\.state\.out\[1\]
*489 ctrl\.state\.out\[2\]
*490 dpath\.a_lt_b\$in0\[0\]
*491 dpath\.a_lt_b\$in0\[10\]
*492 dpath\.a_lt_b\$in0\[11\]
*493 dpath\.a_lt_b\$in0\[12\]
*494 dpath\.a_lt_b\$in0\[13\]
*495 dpath\.a_lt_b\$in0\[14\]
*496 dpath\.a_lt_b\$in0\[15\]
*497 dpath\.a_lt_b\$in0\[1\]
*498 dpath\.a_lt_b\$in0\[2\]
*499 dpath\.a_lt_b\$in0\[3\]
*500 dpath\.a_lt_b\$in0\[4\]
*501 dpath\.a_lt_b\$in0\[5\]
*502 dpath\.a_lt_b\$in0\[6\]
*503 dpath\.a_lt_b\$in0\[7\]
*504 dpath\.a_lt_b\$in0\[8\]
*505 dpath\.a_lt_b\$in0\[9\]
*506 dpath\.a_lt_b\$in1\[0\]
*507 dpath\.a_lt_b\$in1\[10\]
*508 dpath\.a_lt_b\$in1\[11\]
*509 dpath\.a_lt_b\$in1\[12\]
*510 dpath\.a_lt_b\$in1\[13\]
*511 dpath\.a_lt_b\$in1\[14\]
*512 dpath\.a_lt_b\$in1\[15\]
*513 dpath\.a_lt_b\$in1\[1\]
*514 dpath\.a_lt_b\$in1\[2\]
*515 dpath\.a_lt_b\$in1\[3\]
*516 dpath\.a_lt_b\$in1\[4\]
*517 dpath\.a_lt_b\$in1\[5\]
*518 dpath\.a_lt_b\$in1\[6\]
*519 dpath\.a_lt_b\$in1\[7\]
*520 dpath\.a_lt_b\$in1\[8\]
*521 dpath\.a_lt_b\$in1\[9\]
*522 req_msg[0]
*523 req_msg[10]
*524 req_msg[11]
*525 req_msg[12]
*526 req_msg[13]
*527 req_msg[14]
*528 req_msg[15]
*529 req_msg[16]
*530 req_msg[17]
*531 req_msg[18]
*532 req_msg[19]
*533 req_msg[1]
*534 req_msg[20]
*535 req_msg[21]
*536 req_msg[22]
*537 req_msg[23]
*538 req_msg[24]
*539 req_msg[25]
*540 req_msg[26]
*541 req_msg[27]
*542 req_msg[28]
*543 req_msg[29]
*544 req_msg[2]
*545 req_msg[30]
*546 req_msg[31]
*547 req_msg[3]
*548 req_msg[4]
*549 req_msg[5]
*550 req_msg[6]
*551 req_msg[7]
*552 req_msg[8]
*553 req_msg[9]
*554 net36
*555 req_val
*556 reset
*557 net37
*558 net38
*559 net39
*560 net40
*561 net41
*562 net42
*563 net43
*564 net44
*565 net45
*566 net46
*567 net47
*568 net48
*569 net49
*570 net50
*571 net51
*572 net52
*573 resp_rdy
*574 net53
*577 net1
*578 net2
*579 net3
*580 net4
*581 net5
*582 net6
*583 net7
*584 net8
*585 net9
*586 net10
*587 net11
*588 net12
*589 net13
*590 net14
*591 net15
*592 net16
*593 net17
*594 net18
*595 net19
*596 net20
*597 net21
*598 net22
*599 net23
*600 net24
*601 net25
*602 net26
*603 net27
*604 net28
*605 net29
*606 net30
*607 net31
*608 net32
*609 net33
*610 net34
*611 net35
*612 req_rdy
*613 resp_msg[0]
*614 resp_msg[10]
*615 resp_msg[11]
*616 resp_msg[12]
*617 resp_msg[13]
*618 resp_msg[14]
*619 resp_msg[15]
*620 resp_msg[1]
*621 resp_msg[2]
*622 resp_msg[3]
*623 resp_msg[4]
*624 resp_msg[5]
*625 resp_msg[6]
*626 resp_msg[7]
*627 resp_msg[8]
*628 resp_msg[9]
*629 resp_val
*630 clknet_0_clk
*631 clknet_2_0__leaf_clk
*632 clknet_2_1__leaf_clk
*633 clknet_2_2__leaf_clk
*634 clknet_2_3__leaf_clk
*635 net54
*636 net55
*637 net56
*638 net57
*639 net58
*640 net59
*641 net60
*642 net61
*643 net62
*644 net63
*645 net64
*646 net65
*647 net66
*648 net67
*649 net68
*650 net86
*651 net90
*652 net91
*653 net92
*654 net93
*655 net94
*656 net95
*657 net96
*658 net97
*659 net98
*660 net99
*661 net104
*662 net105
*663 net106
*664 net71
*665 net77
*666 net81
*667 net87
*668 net88
*669 net89
*670 _486_
*671 _487_
*672 _488_
*673 _489_
*674 _490_
*675 _491_
*676 _492_
*677 _493_
*678 _494_
*679 _495_
*680 _496_
*681 _497_
*682 _498_
*683 _499_
*684 _500_
*685 _501_
*686 _502_
*687 _503_
*688 _504_
*689 _505_
*690 _506_
*691 _507_
*692 _508_
*693 _509_
*694 _510_
*695 _511_
*696 _512_
*697 _513_
*698 _514_
*699 _515_
*700 _516_
*701 _517_
*702 _518_
*703 _519_
*704 _520_
*705 _521_
*706 _522_
*707 _523_
*708 _524_
*709 _525_
*710 rebuffer16
*711 _527_
*712 _528_
*713 _529_
*714 _530_
*715 _531_
*716 _532_
*717 _533_
*718 _534_
*719 _535_
*720 _536_
*721 _537_
*722 _538_
*723 _539_
*724 _540_
*725 _541_
*726 _542_
*727 _543_
*728 _544_
*729 _545_
*730 _546_
*731 _547_
*732 _548_
*733 _549_
*734 _550_
*735 _551_
*736 _552_
*737 _553_
*738 _554_
*739 _555_
*740 _556_
*741 _557_
*742 _558_
*743 _559_
*744 _560_
*745 _561_
*746 _562_
*747 _563_
*748 _564_
*749 _565_
*750 _566_
*751 _567_
*752 _568_
*753 _569_
*754 _570_
*755 _571_
*756 _572_
*757 _573_
*758 _574_
*759 _575_
*760 _576_
*761 _577_
*762 _578_
*763 _579_
*764 _580_
*765 _581_
*766 _582_
*767 _583_
*768 _584_
*769 _585_
*770 _586_
*771 _587_
*772 _588_
*773 _589_
*774 _590_
*775 _591_
*776 _592_
*777 _593_
*778 _594_
*779 _595_
*780 _596_
*781 _597_
*782 _598_
*783 _599_
*784 _600_
*785 _601_
*786 _602_
*787 _603_
*788 _604_
*789 _605_
*790 _606_
*791 _607_
*792 _608_
*793 _609_
*794 _610_
*795 _611_
*796 _612_
*797 _613_
*798 _614_
*799 _615_
*800 _616_
*801 _617_
*802 _618_
*803 _619_
*804 _620_
*805 _621_
*806 _622_
*807 _623_
*808 _624_
*809 _625_
*810 _626_
*811 _627_
*812 _628_
*813 _629_
*814 _630_
*815 _631_
*816 _632_
*817 _633_
*818 _634_
*819 _635_
*820 _636_
*821 _637_
*822 _638_
*823 _639_
*824 _640_
*825 _641_
*826 _642_
*827 _643_
*828 _644_
*829 _645_
*830 _646_
*831 _647_
*832 _648_
*833 _649_
*834 _650_
*835 _651_
*836 _652_
*837 _653_
*838 _654_
*839 _655_
*840 _656_
*841 _657_
*842 _658_
*843 _659_
*844 _660_
*845 _661_
*846 _662_
*847 _663_
*848 _664_
*849 _665_
*850 _666_
*851 _667_
*852 _668_
*853 _669_
*854 _670_
*855 _671_
*856 _672_
*857 _673_
*858 _674_
*859 _675_
*860 _676_
*861 _677_
*862 _678_
*863 _679_
*864 _680_
*865 _681_
*866 _682_
*867 _683_
*868 _684_
*869 _685_
*870 _686_
*871 _687_
*872 _688_
*873 _689_
*874 _690_
*875 _691_
*876 _692_
*877 _693_
*878 _694_
*879 _695_
*880 _696_
*881 _697_
*882 _698_
*883 _699_
*884 _700_
*885 _701_
*886 _702_
*887 _703_
*888 _704_
*889 _705_
*890 _706_
*891 _707_
*892 _708_
*893 _709_
*894 _710_
*895 _711_
*896 _712_
*897 _713_
*898 _714_
*899 _715_
*900 _716_
*901 _717_
*902 _718_
*903 _719_
*904 _720_
*905 _721_
*906 _722_
*907 _723_
*908 _724_
*909 _725_
*910 _726_
*911 _727_
*912 _728_
*913 _729_
*914 _730_
*915 _731_
*916 _732_
*917 _733_
*918 _734_
*919 _735_
*920 _736_
*921 _737_
*922 _738_
*923 _739_
*924 _740_
*925 _741_
*926 _742_
*927 _743_
*928 _744_
*929 _745_
*930 _746_
*931 _747_
*932 _748_
*933 _749_
*934 _750_
*935 _751_
*936 _752_
*937 _753_
*938 _754_
*939 _755_
*940 _756_
*941 _757_
*942 _758_
*943 _759_
*944 _760_
*945 _761_
*946 _762_
*947 _763_
*948 _764_
*949 _765_
*950 _766_
*951 _767_
*952 _768_
*953 _769_
*954 _770_
*955 _771_
*956 _772_
*957 _773_
*958 _774_
*959 _775_
*960 _776_
*961 _777_
*962 _778_
*963 _779_
*964 _780_
*965 _781_
*966 _782_
*967 _783_
*968 _784_
*969 _785_
*970 _786_
*971 _787_
*972 _788_
*973 _789_
*974 _790_
*975 _791_
*976 _792_
*977 _793_
*978 _794_
*979 _795_
*980 _796_
*981 _797_
*982 _798_
*983 _799_
*984 _800_
*985 _801_
*986 _802_
*987 _803_
*988 _804_
*989 _805_
*990 _806_
*991 _807_
*992 _808_
*993 _809_
*994 _810_
*995 _811_
*996 _812_
*997 _813_
*998 _814_
*999 _815_
*1000 _816_
*1001 _817_
*1002 _818_
*1003 _819_
*1004 _820_
*1005 _821_
*1006 _822_
*1007 _823_
*1008 _824_
*1009 _825_
*1010 _826_
*1011 _827_
*1012 _828_
*1013 _829_
*1014 _830_
*1015 _831_
*1016 _832_
*1017 _833_
*1018 _834_
*1019 _835_
*1020 _836_
*1021 _837_
*1022 _838_
*1023 _839_
*1024 _840_
*1025 _841_
*1026 _842_
*1027 _843_
*1028 _844_
*1029 _845_
*1030 _846_
*1031 _847_
*1032 _848_
*1033 _849_
*1034 _850_
*1035 _851_
*1036 _852_
*1037 _853_
*1038 _854_
*1039 _855_
*1040 _856_
*1041 _857_
*1042 _858_
*1043 _859_
*1044 _860_
*1045 _861_
*1046 _862_
*1047 _863_
*1048 _864_
*1049 _865_
*1050 _866_
*1051 _867_
*1052 _868_
*1053 _869_
*1054 _870_
*1055 _871_
*1056 _872_
*1057 _873_
*1058 _874_
*1059 _875_
*1060 _876_
*1061 _877_
*1062 _878_
*1063 _879_
*1064 _880_
*1065 _881_
*1066 _882_
*1067 _883_
*1068 _884_
*1069 _885_
*1070 _886_
*1071 _887_
*1072 _888_
*1073 _889_
*1074 _890_
*1075 _891_
*1076 _892_
*1077 _893_
*1078 _894_
*1079 _895_
*1080 _896_
*1081 _897_
*1082 _898_
*1083 _899_
*1084 _900_
*1085 _901_
*1086 _902_
*1087 _903_
*1088 _904_
*1089 _905_
*1090 _906_
*1091 _907_
*1092 _908_
*1093 _909_
*1094 _910_
*1095 _911_
*1096 _912_
*1097 _913_
*1098 _914_
*1099 _915_
*1100 _916_
*1101 _917_
*1102 _918_
*1103 _919_
*1104 _920_
*1105 _921_
*1106 _922_
*1107 _923_
*1108 _924_
*1109 _925_
*1110 _926_
*1111 _927_
*1112 _928_
*1113 _929_
*1114 _930_
*1115 _931_
*1116 _932_
*1117 _933_
*1118 _934_
*1119 _935_
*1120 _936_
*1121 _937_
*1122 _938_
*1123 _939_
*1124 _940_
*1125 _941_
*1126 _942_
*1127 _943_
*1128 _944_
*1129 _945_
*1130 _946_
*1131 _947_
*1132 _948_
*1133 _949_
*1134 _950_
*1135 _951_
*1136 _952_
*1137 _953_
*1138 ctrl\.state\.out\[0\]\$_DFF_P_
*1139 ctrl\.state\.out\[1\]\$_DFF_P_
*1140 ctrl\.state\.out\[2\]\$_DFF_P_
*1141 dpath\.a_reg\.out\[0\]\$_DFFE_PP_
*1142 dpath\.a_reg\.out\[10\]\$_DFFE_PP_
*1143 dpath\.a_reg\.out\[11\]\$_DFFE_PP_
*1144 dpath\.a_reg\.out\[12\]\$_DFFE_PP_
*1145 dpath\.a_reg\.out\[13\]\$_DFFE_PP_
*1146 dpath\.a_reg\.out\[14\]\$_DFFE_PP_
*1147 dpath\.a_reg\.out\[15\]\$_DFFE_PP_
*1148 dpath\.a_reg\.out\[1\]\$_DFFE_PP_
*1149 dpath\.a_reg\.out\[2\]\$_DFFE_PP_
*1150 dpath\.a_reg\.out\[3\]\$_DFFE_PP_
*1151 dpath\.a_reg\.out\[4\]\$_DFFE_PP_
*1152 dpath\.a_reg\.out\[5\]\$_DFFE_PP_
*1153 dpath\.a_reg\.out\[6\]\$_DFFE_PP_
*1154 dpath\.a_reg\.out\[7\]\$_DFFE_PP_
*1155 dpath\.a_reg\.out\[8\]\$_DFFE_PP_
*1156 dpath\.a_reg\.out\[9\]\$_DFFE_PP_
*1157 dpath\.b_reg\.out\[0\]\$_DFFE_PP_
*1158 dpath\.b_reg\.out\[10\]\$_DFFE_PP_
*1159 dpath\.b_reg\.out\[11\]\$_DFFE_PP_
*1160 dpath\.b_reg\.out\[12\]\$_DFFE_PP_
*1161 dpath\.b_reg\.out\[13\]\$_DFFE_PP_
*1162 dpath\.b_reg\.out\[14\]\$_DFFE_PP_
*1163 dpath\.b_reg\.out\[15\]\$_DFFE_PP_
*1164 dpath\.b_reg\.out\[1\]\$_DFFE_PP_
*1165 dpath\.b_reg\.out\[2\]\$_DFFE_PP_
*1166 dpath\.b_reg\.out\[3\]\$_DFFE_PP_
*1167 dpath\.b_reg\.out\[4\]\$_DFFE_PP_
*1168 dpath\.b_reg\.out\[5\]\$_DFFE_PP_
*1169 dpath\.b_reg\.out\[6\]\$_DFFE_PP_
*1170 dpath\.b_reg\.out\[7\]\$_DFFE_PP_
*1171 dpath\.b_reg\.out\[8\]\$_DFFE_PP_
*1172 dpath\.b_reg\.out\[9\]\$_DFFE_PP_
*1173 PHY_EDGE_ROW_0_Right_0
*1174 PHY_EDGE_ROW_1_Right_1
*1175 PHY_EDGE_ROW_2_Right_2
*1176 PHY_EDGE_ROW_3_Right_3
*1177 PHY_EDGE_ROW_4_Right_4
*1178 PHY_EDGE_ROW_5_Right_5
*1179 PHY_EDGE_ROW_6_Right_6
*1180 PHY_EDGE_ROW_7_Right_7
*1181 PHY_EDGE_ROW_8_Right_8
*1182 PHY_EDGE_ROW_9_Right_9
*1183 PHY_EDGE_ROW_10_Right_10
*1184 PHY_EDGE_ROW_11_Right_11
*1185 PHY_EDGE_ROW_12_Right_12
*1186 PHY_EDGE_ROW_13_Right_13
*1187 PHY_EDGE_ROW_14_Right_14
*1188 PHY_EDGE_ROW_15_Right_15
*1189 PHY_EDGE_ROW_16_Right_16
*1190 PHY_EDGE_ROW_17_Right_17
*1191 PHY_EDGE_ROW_18_Right_18
*1192 PHY_EDGE_ROW_19_Right_19
*1193 PHY_EDGE_ROW_20_Right_20
*1194 PHY_EDGE_ROW_21_Right_21
*1195 PHY_EDGE_ROW_22_Right_22
*1196 PHY_EDGE_ROW_23_Right_23
*1197 PHY_EDGE_ROW_0_Left_24
*1198 PHY_EDGE_ROW_1_Left_25
*1199 PHY_EDGE_ROW_2_Left_26
*1200 PHY_EDGE_ROW_3_Left_27
*1201 PHY_EDGE_ROW_4_Left_28
*1202 PHY_EDGE_ROW_5_Left_29
*1203 PHY_EDGE_ROW_6_Left_30
*1204 PHY_EDGE_ROW_7_Left_31
*1205 PHY_EDGE_ROW_8_Left_32
*1206 PHY_EDGE_ROW_9_Left_33
*1207 PHY_EDGE_ROW_10_Left_34
*1208 PHY_EDGE_ROW_11_Left_35
*1209 PHY_EDGE_ROW_12_Left_36
*1210 PHY_EDGE_ROW_13_Left_37
*1211 PHY_EDGE_ROW_14_Left_38
*1212 PHY_EDGE_ROW_15_Left_39
*1213 PHY_EDGE_ROW_16_Left_40
*1214 PHY_EDGE_ROW_17_Left_41
*1215 PHY_EDGE_ROW_18_Left_42
*1216 PHY_EDGE_ROW_19_Left_43
*1217 PHY_EDGE_ROW_20_Left_44
*1218 PHY_EDGE_ROW_21_Left_45
*1219 PHY_EDGE_ROW_22_Left_46
*1220 PHY_EDGE_ROW_23_Left_47
*1221 input1
*1222 input2
*1223 input3
*1224 input4
*1225 input5
*1226 input6
*1227 input7
*1228 input8
*1229 input9
*1230 input10
*1231 input11
*1232 input12
*1233 input13
*1234 input14
*1235 input15
*1236 input16
*1237 input17
*1238 input18
*1239 input19
*1240 input20
*1241 input21
*1242 input22
*1243 input23
*1244 input24
*1245 input25
*1246 input26
*1247 input27
*1248 input28
*1249 input29
*1250 input30
*1251 input31
*1252 input32
*1253 input33
*1254 input34
*1255 input35
*1256 output36
*1257 output37
*1258 output38
*1259 output39
*1260 output40
*1261 output41
*1262 output42
*1263 output43
*1264 output44
*1265 output45
*1266 output46
*1267 output47
*1268 output48
*1269 output49
*1270 output50
*1271 output51
*1272 output52
*1273 output53
*1274 clkbuf_0_clk
*1275 clkbuf_2_0__f_clk
*1276 clkbuf_2_1__f_clk
*1277 clkbuf_2_2__f_clk
*1278 clkbuf_2_3__f_clk
*1279 clkload0
*1280 clkload1
*1281 clkload2
*1282 rebuffer1
*1283 rebuffer2
*1284 rebuffer3
*1285 rebuffer4
*1286 rebuffer5
*1287 rebuffer6
*1288 rebuffer7
*1289 rebuffer8
*1290 rebuffer9
*1291 rebuffer10
*1292 rebuffer11
*1293 rebuffer12
*1294 rebuffer13
*1295 rebuffer14
*1296 rebuffer15
*1297 rebuffer33
*1298 rebuffer37
*1299 rebuffer38
*1300 rebuffer39
*1301 rebuffer40
*1302 rebuffer41
*1303 rebuffer42
*1304 rebuffer43
*1305 rebuffer44
*1306 rebuffer45
*1307 rebuffer46
*1308 rebuffer51
*1309 rebuffer52
*1310 rebuffer53
*1311 rebuffer18
*1312 rebuffer24
*1313 rebuffer28
*1314 rebuffer34
*1315 clone35
*1316 clone36
*1317 FILLER_0_1
*1318 FILLER_0_13
*1319 FILLER_0_32
*1320 FILLER_0_69
*1321 FILLER_0_79
*1322 FILLER_0_109
*1323 FILLER_0_111
*1324 FILLER_0_122
*1325 FILLER_0_165
*1326 FILLER_0_170
*1327 FILLER_0_178
*1328 FILLER_1_20
*1329 FILLER_1_50
*1330 FILLER_1_73
*1331 FILLER_2_21
*1332 FILLER_2_26
*1333 FILLER_2_34
*1334 FILLER_2_72
*1335 FILLER_2_80
*1336 FILLER_2_93
*1337 FILLER_2_105
*1338 FILLER_2_113
*1339 FILLER_2_115
*1340 FILLER_2_120
*1341 FILLER_2_127
*1342 FILLER_2_131
*1343 FILLER_2_133
*1344 FILLER_2_141
*1345 FILLER_2_145
*1346 FILLER_2_159
*1347 FILLER_3_1
*1348 FILLER_3_12
*1349 FILLER_3_29
*1350 FILLER_3_33
*1351 FILLER_3_37
*1352 FILLER_3_42
*1353 FILLER_3_44
*1354 FILLER_3_50
*1355 FILLER_3_54
*1356 FILLER_3_58
*1357 FILLER_3_75
*1358 FILLER_3_77
*1359 FILLER_3_83
*1360 FILLER_3_90
*1361 FILLER_3_94
*1362 FILLER_3_98
*1363 FILLER_3_106
*1364 FILLER_3_111
*1365 FILLER_3_120
*1366 FILLER_3_132
*1367 FILLER_3_134
*1368 FILLER_3_138
*1369 FILLER_3_160
*1370 FILLER_3_178
*1371 FILLER_4_1
*1372 FILLER_4_21
*1373 FILLER_4_26
*1374 FILLER_4_45
*1375 FILLER_4_94
*1376 FILLER_4_102
*1377 FILLER_4_123
*1378 FILLER_4_146
*1379 FILLER_4_159
*1380 FILLER_4_161
*1381 FILLER_4_171
*1382 FILLER_5_29
*1383 FILLER_5_34
*1384 FILLER_5_36
*1385 FILLER_5_41
*1386 FILLER_5_45
*1387 FILLER_5_47
*1388 FILLER_5_56
*1389 FILLER_5_65
*1390 FILLER_5_67
*1391 FILLER_5_71
*1392 FILLER_5_75
*1393 FILLER_5_77
*1394 FILLER_5_86
*1395 FILLER_5_90
*1396 FILLER_5_94
*1397 FILLER_5_100
*1398 FILLER_5_104
*1399 FILLER_5_106
*1400 FILLER_5_110
*1401 FILLER_5_112
*1402 FILLER_5_116
*1403 FILLER_5_120
*1404 FILLER_5_129
*1405 FILLER_5_144
*1406 FILLER_6_1
*1407 FILLER_6_5
*1408 FILLER_6_33
*1409 FILLER_6_38
*1410 FILLER_6_53
*1411 FILLER_6_57
*1412 FILLER_6_62
*1413 FILLER_6_78
*1414 FILLER_6_101
*1415 FILLER_6_105
*1416 FILLER_6_114
*1417 FILLER_6_124
*1418 FILLER_6_143
*1419 FILLER_6_152
*1420 FILLER_6_174
*1421 FILLER_6_178
*1422 FILLER_7_1
*1423 FILLER_7_17
*1424 FILLER_7_62
*1425 FILLER_7_102
*1426 FILLER_7_149
*1427 FILLER_7_161
*1428 FILLER_7_174
*1429 FILLER_8_1
*1430 FILLER_8_5
*1431 FILLER_8_7
*1432 FILLER_8_51
*1433 FILLER_8_58
*1434 FILLER_8_81
*1435 FILLER_8_85
*1436 FILLER_8_93
*1437 FILLER_8_98
*1438 FILLER_8_106
*1439 FILLER_8_115
*1440 FILLER_8_141
*1441 FILLER_9_20
*1442 FILLER_9_35
*1443 FILLER_9_41
*1444 FILLER_9_60
*1445 FILLER_9_64
*1446 FILLER_9_68
*1447 FILLER_9_118
*1448 FILLER_9_120
*1449 FILLER_9_156
*1450 FILLER_9_178
*1451 FILLER_10_1
*1452 FILLER_10_9
*1453 FILLER_10_28
*1454 FILLER_10_33
*1455 FILLER_10_40
*1456 FILLER_10_55
*1457 FILLER_10_106
*1458 FILLER_10_109
*1459 FILLER_10_121
*1460 FILLER_10_125
*1461 FILLER_10_127
*1462 FILLER_10_164
*1463 FILLER_10_177
*1464 FILLER_11_18
*1465 FILLER_11_21
*1466 FILLER_11_29
*1467 FILLER_11_43
*1468 FILLER_11_45
*1469 FILLER_11_49
*1470 FILLER_11_51
*1471 FILLER_11_55
*1472 FILLER_11_72
*1473 FILLER_11_76
*1474 FILLER_11_80
*1475 FILLER_11_88
*1476 FILLER_11_90
*1477 FILLER_11_94
*1478 FILLER_11_98
*1479 FILLER_11_100
*1480 FILLER_11_104
*1481 FILLER_11_108
*1482 FILLER_11_113
*1483 FILLER_11_143
*1484 FILLER_11_177
*1485 FILLER_12_1
*1486 FILLER_12_5
*1487 FILLER_12_14
*1488 FILLER_12_21
*1489 FILLER_12_26
*1490 FILLER_12_30
*1491 FILLER_12_35
*1492 FILLER_12_54
*1493 FILLER_12_62
*1494 FILLER_12_77
*1495 FILLER_12_81
*1496 FILLER_12_93
*1497 FILLER_12_161
*1498 FILLER_13_1
*1499 FILLER_13_16
*1500 FILLER_13_20
*1501 FILLER_13_26
*1502 FILLER_13_31
*1503 FILLER_13_36
*1504 FILLER_13_66
*1505 FILLER_13_113
*1506 FILLER_14_1
*1507 FILLER_14_9
*1508 FILLER_14_18
*1509 FILLER_14_22
*1510 FILLER_14_35
*1511 FILLER_14_51
*1512 FILLER_14_54
*1513 FILLER_14_71
*1514 FILLER_14_117
*1515 FILLER_15_18
*1516 FILLER_15_26
*1517 FILLER_15_34
*1518 FILLER_15_114
*1519 FILLER_16_1
*1520 FILLER_16_5
*1521 FILLER_16_7
*1522 FILLER_16_15
*1523 FILLER_16_17
*1524 FILLER_16_20
*1525 FILLER_16_24
*1526 FILLER_16_42
*1527 FILLER_17_1
*1528 FILLER_17_5
*1529 FILLER_17_14
*1530 FILLER_17_21
*1531 FILLER_17_27
*1532 FILLER_17_31
*1533 FILLER_17_54
*1534 FILLER_17_126
*1535 FILLER_18_39
*1536 FILLER_18_101
*1537 FILLER_18_107
*1538 FILLER_19_1
*1539 FILLER_19_17
*1540 FILLER_19_21
*1541 FILLER_19_34
*1542 FILLER_19_47
*1543 FILLER_19_62
*1544 FILLER_19_66
*1545 FILLER_19_85
*1546 FILLER_19_89
*1547 FILLER_19_119
*1548 FILLER_20_1
*1549 FILLER_20_17
*1550 FILLER_20_25
*1551 FILLER_20_29
*1552 FILLER_20_31
*1553 FILLER_20_35
*1554 FILLER_20_43
*1555 FILLER_20_48
*1556 FILLER_20_56
*1557 FILLER_20_70
*1558 FILLER_20_78
*1559 FILLER_20_110
*1560 FILLER_20_112
*1561 FILLER_20_129
*1562 FILLER_20_135
*1563 FILLER_20_146
*1564 FILLER_20_148
*1565 FILLER_20_159
*1566 FILLER_20_163
*1567 FILLER_20_174
*1568 FILLER_20_178
*1569 FILLER_21_1
*1570 FILLER_21_33
*1571 FILLER_21_65
*1572 FILLER_21_97
*1573 FILLER_21_129
*1574 FILLER_21_161
*1575 FILLER_21_177
*1576 FILLER_22_1
*1577 FILLER_22_33
*1578 FILLER_22_65
*1579 FILLER_22_97
*1580 FILLER_22_129
*1581 FILLER_22_161
*1582 FILLER_22_177
*1583 FILLER_23_1
*1584 FILLER_23_33
*1585 FILLER_23_65
*1586 FILLER_23_97
*1587 FILLER_23_129
*1588 FILLER_23_161
*1589 FILLER_23_177

*PORTS
clk I
req_msg[0] I
req_msg[10] I
req_msg[11] I
req_msg[12] I
req_msg[13] I
req_msg[14] I
req_msg[15] I
req_msg[16] I
req_msg[17] I
req_msg[18] I
req_msg[19] I
req_msg[1] I
req_msg[20] I
req_msg[21] I
req_msg[22] I
req_msg[23] I
req_msg[24] I
req_msg[25] I
req_msg[26] I
req_msg[27] I
req_msg[28] I
req_msg[29] I
req_msg[2] I
req_msg[30] I
req_msg[31] I
req_msg[3] I
req_msg[4] I
req_msg[5] I
req_msg[6] I
req_msg[7] I
req_msg[8] I
req_msg[9] I
req_rdy O
req_val I
reset I
resp_msg[0] O
resp_msg[10] O
resp_msg[11] O
resp_msg[12] O
resp_msg[13] O
resp_msg[14] O
resp_msg[15] O
resp_msg[1] O
resp_msg[2] O
resp_msg[3] O
resp_msg[4] O
resp_msg[5] O
resp_msg[6] O
resp_msg[7] O
resp_msg[8] O
resp_msg[9] O
resp_rdy I
resp_val O

*D_NET *1 0.000537983
*CONN
*I *1138:D I *D DFF_X1
*I *705:ZN O *D OAI21_X1
*CAP
1 *1138:D 0.000215709
2 *705:ZN 0.000215709
3 *1138:D resp_val 2.64089e-05
4 *1138:D *698:A2 7.83505e-06
5 *1138:D *705:A 0
6 *1138:D *705:B1 5.55802e-06
7 *1138:D *708:A 0
8 *1138:D *708:B2 1.43949e-06
9 *1138:D *1139:D 7.19036e-06
10 *1138:D *1140:D 2.04661e-06
11 *1138:D *1238:A 1.60597e-05
12 *1138:D *1249:A 1.84661e-05
13 *1138:D *1270:A 0
14 *1138:D *571:24 0
15 *1138:D *579:18 1.17192e-05
16 *1138:D *605:18 6.32202e-06
17 *1138:D *631:100 3.51992e-06
*RES
1 *705:ZN *1138:D 43.1786 
*END

*D_NET *2 0.000651723
*CONN
*I *1139:D I *D DFF_X1
*I *708:ZN O *D OAI21_X1
*CAP
1 *1139:D 0.000189417
2 *708:ZN 0.000189417
3 *1139:D resp_msg[10] 7.69418e-06
4 *1139:D resp_msg[11] 2.23276e-05
5 *1139:D resp_msg[15] 3.13143e-06
6 *1139:D resp_val 5.43226e-05
7 *1139:D *705:B1 1.82633e-06
8 *1139:D *901:B2 3.05095e-05
9 *1139:D *921:B2 0
10 *1139:D *949:B2 2.83434e-06
11 *1139:D *1139:CK 6.38328e-07
12 *1139:D *1223:A 0
13 *1139:D *1224:A 0
14 *1139:D *1225:A 3.27479e-05
15 *1139:D *1253:A 9.22696e-06
16 *1139:D *1258:A 0
17 *1139:D *1263:A 1.72426e-05
18 *1139:D *571:24 0
19 *1139:D *580:28 3.29072e-05
20 *1139:D *581:12 5.02896e-05
21 *1138:D *1139:D 7.19036e-06
*RES
1 *708:ZN *1139:D 44.8572 
*END

*D_NET *3 0.000166268
*CONN
*I *1140:D I *D DFF_X1
*I *698:ZN O *D OAI22_X1
*CAP
1 *1140:D 7.02172e-05
2 *698:ZN 7.02172e-05
3 *1140:D *698:A2 1.19871e-05
4 *1140:D *698:B1 2.39679e-06
5 *1140:D *701:B1 0
6 *1140:D *708:A 5.09618e-06
7 *1140:D *708:B1 4.30693e-06
8 *1138:D *1140:D 2.04661e-06
*RES
1 *698:ZN *1140:D 16.7857 
*END

*D_NET *4 0.000289327
*CONN
*I *699:A I *D BUF_X4
*I *819:A2 I *D NAND2_X2
*I *1138:QN O *D DFF_X1
*CAP
1 *699:A 5.23824e-06
2 *819:A2 1.73282e-05
3 *1138:QN 4.53604e-05
4 *4:8 6.79268e-05
5 *699:A *58:21 2.52965e-06
6 *699:A *600:14 4.79358e-06
7 *819:A2 *1172:CK 5.35497e-05
8 *819:A2 *582:8 1.81701e-05
9 *4:8 *58:21 2.09579e-05
10 *4:8 *600:14 5.34723e-05
*RES
1 *1138:QN *4:8 11.1786 
2 *4:8 *819:A2 17.9643 
3 *4:8 *699:A 5.75 
*END

*D_NET *5 0.000328802
*CONN
*I *1141:D I *D DFF_X1
*I *831:ZN O *D NAND2_X1
*CAP
1 *1141:D 0.000110562
2 *831:ZN 0.000110562
3 *1141:D *831:A1 1.30195e-05
4 *1141:D *1006:A1 6.21255e-06
5 *1141:D *1006:A2 1.32348e-05
6 *1141:D *1141:CK 7.27186e-06
7 *1141:D *1157:CK 2.0725e-06
8 *1141:D *1233:A 4.01884e-06
9 *1141:D *68:23 9.46913e-06
10 *1141:D *187:116 3.49165e-05
11 *1141:D *348:18 7.09666e-06
12 *1141:D *499:35 1.0366e-05
*RES
1 *831:ZN *1141:D 42.9286 
*END

*D_NET *6 0.000231297
*CONN
*I *1142:D I *D DFF_X1
*I *853:ZN O *D NAND2_X1
*CAP
1 *1142:D 8.64604e-05
2 *853:ZN 8.64604e-05
3 *1142:D *852:B2 1.5896e-05
4 *1142:D *63:43 3.49579e-05
5 *1142:D *187:8 0
6 *1142:D *579:18 0
7 *1142:D *631:10 1.30017e-06
8 *1142:D *631:86 6.22221e-06
*RES
1 *853:ZN *1142:D 29.4286 
*END

*D_NET *7 0.000174727
*CONN
*I *1143:D I *D DFF_X1
*I *902:ZN O *D NAND2_X1
*CAP
1 *1143:D 5.68395e-05
2 *902:ZN 5.68395e-05
3 *1143:D *902:A1 1.40488e-05
4 *1143:D *902:A2 7.19036e-06
5 *1143:D *1143:CK 2.39679e-06
6 *1143:D *120:18 3.02725e-05
7 *1143:D *190:45 5.47914e-06
8 *1143:D *631:12 1.66033e-06
*RES
1 *902:ZN *1143:D 26.5357 
*END

*D_NET *8 0.000238166
*CONN
*I *1144:D I *D DFF_X1
*I *922:ZN O *D NAND2_X1
*CAP
1 *1144:D 0.000118602
2 *922:ZN 0.000118602
3 *1144:D *1089:A1 0
4 *1144:D *1144:CK 9.62051e-07
5 *1144:D *1146:D 0
6 *1144:D *404:14 0
*RES
1 *922:ZN *1144:D 30.5 
*END

*D_NET *9 0.000606274
*CONN
*I *1145:D I *D DFF_X1
*I *950:ZN O *D NAND2_X1
*CAP
1 *1145:D 0.000119282
2 *950:ZN 0.000119282
3 *1145:D *949:A 0.000101927
4 *1145:D *950:A2 2.66485e-05
5 *1145:D *990:B1 2.20188e-05
6 *1145:D *991:A1 0.000217117
*RES
1 *950:ZN *1145:D 37.1429 
*END

*D_NET *10 0.000359415
*CONN
*I *1146:D I *D DFF_X1
*I *971:ZN O *D NAND2_X1
*CAP
1 *1146:D 0.000157678
2 *971:ZN 0.000157678
3 *1146:D *919:A2 0
4 *1146:D *921:A 1.97014e-05
5 *1146:D *68:77 2.40184e-06
6 *1146:D *187:24 1.52083e-06
7 *1146:D *631:14 1.15037e-05
8 *1146:D *631:18 8.93253e-06
9 *1144:D *1146:D 0
*RES
1 *971:ZN *1146:D 35.1786 
*END

*D_NET *11 0.000105152
*CONN
*I *1147:D I *D DFF_X2
*I *991:ZN O *D NAND2_X1
*CAP
1 *1147:D 3.27857e-05
2 *991:ZN 3.27857e-05
3 *1147:D *990:B1 1.64551e-05
4 *1147:D *991:A1 2.2806e-05
5 *1147:D *991:A2 3.19164e-07
*RES
1 *991:ZN *1147:D 14.6786 
*END

*D_NET *12 0.000348479
*CONN
*I *1148:D I *D DFF_X1
*I *999:ZN O *D NAND2_X1
*CAP
1 *1148:D 0.000103269
2 *999:ZN 0.000103269
3 *1148:D *999:A1 1.21774e-05
4 *1148:D *999:A2 8.08846e-05
5 *1148:D *1011:A2 5.7416e-06
6 *1148:D *1232:A 7.04051e-06
7 *1148:D *1237:A 1.39412e-05
8 *1148:D *1297:A 1.52083e-06
9 *1148:D *633:71 2.06354e-05
*RES
1 *999:ZN *1148:D 34.6429 
*END

*D_NET *13 0.000106366
*CONN
*I *1149:D I *D DFF_X1
*I *1006:ZN O *D NAND2_X1
*CAP
1 *1149:D 3.65154e-05
2 *1006:ZN 3.65154e-05
3 *1149:D *1141:CK 0
4 *1149:D *499:35 3.26972e-05
5 *1149:D *633:71 6.38328e-07
*RES
1 *1006:ZN *1149:D 14.1786 
*END

*D_NET *14 0.000317212
*CONN
*I *1150:D I *D DFF_X1
*I *1013:ZN O *D NAND2_X1
*CAP
1 *1150:D 7.4885e-05
2 *1013:ZN 7.4885e-05
3 *1150:D resp_msg[2] 1.35997e-05
4 *1150:D *998:B2 5.87611e-06
5 *1150:D *1012:A 2.52965e-06
6 *1150:D *1013:A2 2.32518e-05
7 *1150:D *190:18 3.09411e-06
8 *1150:D *601:10 2.64866e-07
9 *1150:D *601:18 1.05456e-05
10 *1150:D *633:56 5.39076e-05
11 *1150:D *633:65 5.4373e-05
*RES
1 *1013:ZN *1150:D 30.1786 
*END

*D_NET *15 0.000215922
*CONN
*I *1151:D I *D DFF_X1
*I *1020:ZN O *D NAND2_X1
*CAP
1 *1151:D 4.3971e-05
2 *1020:ZN 4.3971e-05
3 *1151:D *1029:B2 0
4 *1151:D *503:12 0
5 *1151:D *567:26 1.56073e-06
6 *1151:D *593:12 7.32686e-05
7 *1151:D *601:18 5.31507e-05
*RES
1 *1020:ZN *1151:D 26.2143 
*END

*D_NET *16 0.00011856
*CONN
*I *1152:D I *D DFF_X1
*I *1030:ZN O *D NAND2_X1
*CAP
1 *1152:D 4.28422e-05
2 *1030:ZN 4.28422e-05
3 *1152:D *1030:A1 3.28756e-05
4 *1152:D *633:16 0
*RES
1 *1030:ZN *1152:D 14.8571 
*END

*D_NET *17 0.000101922
*CONN
*I *1153:D I *D DFF_X1
*I *1037:ZN O *D NAND2_X1
*CAP